// -*- C++ -*-
// File generated by PyFoam - sorry for the ugliness

FoamFile
{
 version 2.0;
 format ascii; 	
 class dictionary; 	
 object blockMeshDict; 	
}

convertToMeters 1;

vertices
  (
    (-1.056000 -0.883000 0.210000)
    (-0.496000 -0.883000 0.210000)
    (-0.496000 -0.437000 0.210000)
    (-1.056000 -0.437000 0.210000)
    (-1.056000 -0.883000 0.458000)
    (-0.496000 -0.883000 0.458000)
    (-0.496000 -0.437000 0.458000)
    (-1.056000 -0.437000 0.458000)
  ); 	

blocks
  (
    hex

    (
      0
      1
      2
      3
      4
      5
      6
      7
    )
    (35 27 15)
    simpleGrading
    (1 1 1)
  ); 	

edges
  (
  ); 	

boundary
  (
    maxY

    {
      type patch;
      faces
        (

          (
            3
            7
            6
            2
          )
        ); 	

    }
    minX

    {
      type patch;
      faces
        (

          (
            0
            4
            7
            3
          )
        ); 	

    }
    maxX

    {
      type patch;
      faces
        (

          (
            2
            6
            5
            1
          )
        ); 	

    }
    minY

    {
      type patch;
      faces
        (

          (
            1
            5
            4
            0
          )
        ); 	

    }
    minZ

    {
      type patch;
      faces
        (

          (
            0
            3
            2
            1
          )
        ); 	

    }
    maxZ

    {
      type patch;
      faces
        (

          (
            4
            5
            6
            7
          )
        ); 	

    }
  ); 	

mergePatchPairs
  (
  ); 	

